*----------------------------------------------------------------------
* SPICE Model generated by Murata Manufacturing Co., Ltd.
* Copyright(C) Murata Manufacturing Co., Ltd.
* Description :1608M(0603)/X7R/0.47uF/16V
* Murata P/N :GRM188R71C474KA88
* Property : C = 0.47[uF]
* Data Generated on Feb 1, 2022
*----------------------------------------------------------------------
* Applicable Conditions:
*   Frequency Range = 100Hz-6GHz
*   Temperature = 25 degC
*   DC Bias Voltage = 0V
*   Small Signal Operation
*----------------------------------------------------------------------
.SUBCKT GRM188R71C474KA88_DC0V_25degC port1 port2
C1 port1 11 4.55e-7
L2 11 12 1.43e-10
R3 12 13 7.60e-3
C4 13 14 5.10e-5
R4 13 14 78.0
C5 14 15 7.42e-5
R5 14 15 7.80
C6 15 16 7.08e-5
R6 15 16 1.49
C7 16 17 6.14e-5
R7 16 17 2.59e-1
C8 17 18 4.06e-5
R8 17 18 4.30e-2
C9 18 19 3.69e-5
R9 18 19 6.41e-3
L10 19 20 2.13e-11
R10 19 20 6.88e-2
L11 20 21 1.48e-10
R11 20 21 4.47e-2
C12 21 22 3.60e-6
L12 21 22 1.76e-11
R12 21 22 6.76e-3
C13 22 23 6.10e-7
L13 22 23 5.29e-11
R13 22 23 1.60e-2
C14 23 24 7.66e-12
L14 23 24 7.82e-11
R14 23 24 10.7
C15 24 port2 3.05e-12
L15 24 port2 1.11e-10
R15 24 port2 20.9
R100 port1 11 1.06e+9
.ENDS GRM188R71C474KA88_DC0V_25degC