*----------------------------------------------------------------------
* SPICE Model generated by Murata Manufacturing Co., Ltd.
* Copyright(C) Murata Manufacturing Co., Ltd.
* Description :1608M(0603)/C0G/22pF/50V
* Murata P/N :GRM1885C1H220JA01
* Property : C = 22[pF]
* Data Generated on Jan 10, 2017
*----------------------------------------------------------------------
* Applicable Conditions:
*   Frequency Range = 100MHz-8.5GHz
*   Temperature = 25 degC
*   DC Bias Voltage = 0V
*   Small Signal Operation
*----------------------------------------------------------------------
.SUBCKT GRM1885C1H220JA01_DC0V_25degC port1 port2
C1 port1 11 2.20e-11
L2 11 12 2.52e-10
R3 12 13 2.07e-1
L4 13 14 2.23e-11
R4 13 14 4.07e-1
C5 14 15 4.01e-10
L5 14 15 6.40e-12
R5 14 15 7.26e-1
C6 15 16 2.70e-11
L6 15 16 2.53e-11
R6 15 16 2.86
C7 16 17 1.34e-11
L7 16 17 3.00e-11
R7 16 17 4.71
C8 17 port2 1.29e-12
L8 17 port2 1.92e-10
R8 17 port2 1.00e+5
R100 port1 11 1.00e+10
.ENDS GRM1885C1H220JA01_DC0V_25degC