*----------------------------------------------------------------------
* SPICE Model generated by Murata Manufacturing Co., Ltd.
* Copyright(C) Murata Manufacturing Co., Ltd.
* Description :2012M(0805)/X7R/0.22uF/50V
* Murata P/N :GRM21BR71H224KA01
* Property : C = 0.22[uF]
* Data Generated on Aug 1, 2022
*----------------------------------------------------------------------
* Applicable Conditions:
*   Frequency Range = 100Hz-6GHz
*   Temperature = 25 degC
*   DC Bias Voltage = 0V
*   Small Signal Operation
*----------------------------------------------------------------------
.SUBCKT GRM21BR71H224KA01_DC0V_25degC port1 port2
C1 port1 11 2.26e-7
L2 11 12 1.70e-10
R3 12 13 8.20e-3
C4 13 14 3.10e-5
R4 13 14 179
C5 14 15 2.92e-5
R5 14 15 34.1
C6 15 16 2.42e-5
R6 15 16 3.82
C7 16 17 2.76e-5
R7 16 17 3.99e-1
C8 17 18 2.24e-5
R8 17 18 5.48e-2
C9 18 19 1.94e-5
R9 18 19 1.01e-2
L10 19 20 2.41e-11
R10 19 20 7.60e-2
L11 20 21 1.94e-10
R11 20 21 6.32e-2
C12 21 22 9.62e-7
L12 21 22 3.89e-11
R12 21 22 3.26e-2
C13 22 23 3.40e-7
L13 22 23 5.16e-11
R13 22 23 3.57e-2
C14 23 24 1.21e-11
L14 23 24 6.76e-11
R14 23 24 7.28
C15 24 port2 5.28e-12
L15 24 port2 6.92e-11
R15 24 port2 15.3
R100 port1 11 2.27e+9
.ENDS GRM21BR71H224KA01_DC0V_25degC