*----------------------------------------------------------------------
* SPICE Model generated by Murata Manufacturing Co., Ltd.
* Copyright(C) Murata Manufacturing Co., Ltd.
* Description :2012M(0805)/X7R/1uF/25V
* Murata P/N :GRM219R71E105KA88
* Property : C = 1[uF]
* Data Generated on Mar 14, 2018
*----------------------------------------------------------------------
* Applicable Conditions:
*   Frequency Range = 100Hz-6GHz
*   Temperature = 25 degC
*   DC Bias Voltage = 0V
*   Small Signal Operation
*----------------------------------------------------------------------
.SUBCKT GRM219R71E105KA88_DC0V_25degC port1 port2
C1 port1 11 9.74e-7
L2 11 12 1.03e-10
R3 12 13 5.32e-3
C4 13 14 1.24e-5
R4 13 14 539
C5 14 15 8.65e-5
R5 14 15 3.04
C6 15 16 8.32e-5
R6 15 16 2.81e-1
C7 16 17 7.06e-5
R7 16 17 3.30e-2
C8 17 18 6.08e-5
R8 17 18 4.82e-3
L9 18 19 1.92e-11
R9 18 19 6.28e-2
L10 19 20 1.82e-10
R10 19 20 3.83e-2
C11 20 21 3.68e-6
L11 20 21 3.66e-11
R11 20 21 1.05e-2
C12 21 22 1.03e-6
L12 21 22 5.72e-11
R12 21 22 1.51e-2
C13 22 23 9.24e-12
L13 22 23 7.76e-11
R13 22 23 8.85
C14 23 port2 2.46e-12
L14 23 port2 1.20e-10
R14 23 port2 24.3
R100 port1 11 5.00e+8
.ENDS GRM219R71E105KA88_DC0V_25degC