*----------------------------------------------------------------------
* SPICE Model generated by Murata Manufacturing Co., Ltd.
* Copyright(C) Murata Manufacturing Co., Ltd.
* Description :3225M(1210)/X7R/4.7uF/50V
* Murata P/N :GRM32ER71H475KA88
* Property : C = 4.7[uF]
* Data Generated on Mar 14, 2018
*----------------------------------------------------------------------
* Applicable Conditions:
*   Frequency Range = 100Hz-6GHz
*   Temperature = 25 degC
*   DC Bias Voltage = 0V
*   Small Signal Operation
*----------------------------------------------------------------------
.SUBCKT GRM32ER71H475KA88_DC0V_25degC port1 port2
C1 port1 11 4.63e-6
L2 11 12 2.52e-11
R3 12 13 1.99e-3
C4 13 14 2.97e-4
R4 13 14 17.5
C5 14 15 5.77e-4
R5 14 15 5.32e-1
C6 15 16 5.38e-4
R6 15 16 5.61e-2
C7 16 17 4.67e-4
R7 16 17 6.02e-3
C8 17 18 4.51e-4
R8 17 18 6.06e-4
L9 18 19 2.46e-11
R9 18 19 2.97e-2
L10 19 20 3.58e-10
R10 19 20 2.52e-2
C11 20 21 7.37e-6
L11 20 21 1.58e-10
R11 20 21 2.15e-2
C12 21 22 6.24e-6
L12 21 22 7.52e-11
R12 21 22 1.22e-2
C13 22 port2 1.24e-12
L13 22 port2 2.93e-10
R13 22 port2 79.0
R100 port1 11 1.06e+8
.ENDS GRM32ER71H475KA88_DC0V_25degC